<?xml version="1.0" encoding="UTF-8"?>
<!DOCTYPE network SYSTEM "http://www.matsim.org/files/dtd/network_v2.dtd">
<network>

<!-- ====================================================================== -->

	<nodes>
		<node id="0" x="-200.0" y="200.0" >
		</node>
		<node id="1" x="0.0" y="200.0" >
		</node>
		<node id="2" x="200.0" y="200.0" >
		</node>
		<node id="3" x="400.0" y="400.0" >
		</node>
		<node id="4" x="400.0" y="0.0" >
		</node>
		<node id="5" x="600.0" y="200.0" >
		</node>
		<node id="6" x="800.0" y="200.0" >
		</node>
	</nodes>

<!-- ====================================================================== -->

	<links capperiod="01:00:00" effectivecellsize="7.5" effectivelanewidth="3.75">
		<link id="0_1" from="0" to="1" length="200.0" freespeed="222.22222222222223" capacity="3600.0" permlanes="1.0" oneway="1" modes="car" >
		</link>
		<link id="1_2" from="1" to="2" length="200.0" freespeed="222.22222222222223" capacity="3600.0" permlanes="1.0" oneway="1" modes="car" >
		</link>
		<link id="2_3" from="2" to="3" length="200.0" freespeed="3.33889816360601" capacity="1800.0" permlanes="1.0" oneway="1" modes="car" >
		</link>
		<link id="2_4" from="2" to="4" length="200.0" freespeed="0.33338889814969164" capacity="1800.0" permlanes="1.0" oneway="1" modes="car" >
		</link>
		<link id="3_4" from="3" to="4" length="200.0" freespeed="3.33889816360601" capacity="1800.0" permlanes="1.0" oneway="1" modes="car" >
		</link>
		<link id="3_5" from="3" to="5" length="200.0" freespeed="0.33338889814969164" capacity="1800.0" permlanes="1.0" oneway="1" modes="car" >
		</link>
		<link id="4_5" from="4" to="5" length="200.0" freespeed="3.33889816360601" capacity="1800.0" permlanes="1.0" oneway="1" modes="car" >
		</link>
		<link id="5_6" from="5" to="6" length="200.0" freespeed="222.22222222222223" capacity="3600.0" permlanes="1.0" oneway="1" modes="car" >
		</link>
	</links>

<!-- ====================================================================== -->

</network>
